
---------- Begin Simulation Statistics ----------
final_tick                               392538904000                       # Number of ticks from beginning of simulation (restored from checkpoints and never reset)
host_inst_rate                                 691803                       # Simulator instruction rate (inst/s)
host_mem_usage                                 702152                       # Number of bytes of host memory used
host_op_rate                                   691828                       # Simulator op (including micro ops) rate (op/s)
host_seconds                                   144.55                       # Real time elapsed on the host
host_tick_rate                             2715595262                       # Simulator tick rate (ticks/s)
sim_freq                                 1000000000000                       # Frequency of simulated ticks
sim_insts                                   100000000                       # Number of instructions simulated
sim_ops                                     100003637                       # Number of ops (including micro ops) simulated
sim_seconds                                  0.392539                       # Number of seconds simulated
sim_ticks                                392538904000                       # Number of ticks simulated
system.cpu.branchPred.BTBCorrect                    0                       # Number of correct BTB predictions (this stat may not work properly.
system.cpu.branchPred.BTBHitPct             99.569796                       # BTB Hit Percentage
system.cpu.branchPred.BTBHits                  596904                       # Number of BTB hits
system.cpu.branchPred.BTBLookups               599483                       # Number of BTB lookups
system.cpu.branchPred.RASInCorrect                  7                       # Number of incorrect RAS predictions.
system.cpu.branchPred.condIncorrect               867                       # Number of conditional branches incorrect
system.cpu.branchPred.condPredicted            599677                       # Number of conditional branches predicted
system.cpu.branchPred.indirectHits                163                       # Number of indirect target hits.
system.cpu.branchPred.indirectLookups             363                       # Number of indirect predictor lookups.
system.cpu.branchPred.indirectMisses              200                       # Number of indirect misses.
system.cpu.branchPred.lookups                  601665                       # Number of BP lookups
system.cpu.branchPred.usedRAS                     571                       # Number of times the RAS was used to get a target.
system.cpu.branchPredindirectMispredicted          112                       # Number of mispredicted indirect branches.
system.cpu.committedInsts                   100000000                       # Number of instructions committed
system.cpu.committedOps                     100003637                       # Number of ops (including micro ops) committed
system.cpu.cpi                               3.925389                       # CPI: cycles per instruction
system.cpu.discardedOps                          2612                       # Number of ops (including micro ops) which were discarded before commit
system.cpu.dtb.accesses                             0                       # DTB accesses
system.cpu.dtb.align_faults                         0                       # Number of TLB faults due to alignment restrictions
system.cpu.dtb.domain_faults                        0                       # Number of TLB faults due to domain restrictions
system.cpu.dtb.flush_entries                        0                       # Number of entries that have been flushed from TLB
system.cpu.dtb.flush_tlb                            0                       # Number of times complete TLB was flushed
system.cpu.dtb.flush_tlb_asid                       0                       # Number of times TLB was flushed by ASID
system.cpu.dtb.flush_tlb_mva                        0                       # Number of times TLB was flushed by MVA
system.cpu.dtb.flush_tlb_mva_asid                   0                       # Number of times TLB was flushed by MVA & ASID
system.cpu.dtb.hits                                 0                       # DTB hits
system.cpu.dtb.inst_accesses                        0                       # ITB inst accesses
system.cpu.dtb.inst_hits                            0                       # ITB inst hits
system.cpu.dtb.inst_misses                          0                       # ITB inst misses
system.cpu.dtb.misses                               0                       # DTB misses
system.cpu.dtb.perms_faults                         0                       # Number of TLB faults due to permissions restrictions
system.cpu.dtb.prefetch_faults                      0                       # Number of TLB faults due to prefetch
system.cpu.dtb.read_accesses                        0                       # DTB read accesses
system.cpu.dtb.read_hits                            0                       # DTB read hits
system.cpu.dtb.read_misses                          0                       # DTB read misses
system.cpu.dtb.stage2_mmu.stage2_tlb.accesses            0                       # DTB accesses
system.cpu.dtb.stage2_mmu.stage2_tlb.align_faults            0                       # Number of TLB faults due to alignment restrictions
system.cpu.dtb.stage2_mmu.stage2_tlb.domain_faults            0                       # Number of TLB faults due to domain restrictions
system.cpu.dtb.stage2_mmu.stage2_tlb.flush_entries            0                       # Number of entries that have been flushed from TLB
system.cpu.dtb.stage2_mmu.stage2_tlb.flush_tlb            0                       # Number of times complete TLB was flushed
system.cpu.dtb.stage2_mmu.stage2_tlb.flush_tlb_asid            0                       # Number of times TLB was flushed by ASID
system.cpu.dtb.stage2_mmu.stage2_tlb.flush_tlb_mva            0                       # Number of times TLB was flushed by MVA
system.cpu.dtb.stage2_mmu.stage2_tlb.flush_tlb_mva_asid            0                       # Number of times TLB was flushed by MVA & ASID
system.cpu.dtb.stage2_mmu.stage2_tlb.hits            0                       # DTB hits
system.cpu.dtb.stage2_mmu.stage2_tlb.inst_accesses            0                       # ITB inst accesses
system.cpu.dtb.stage2_mmu.stage2_tlb.inst_hits            0                       # ITB inst hits
system.cpu.dtb.stage2_mmu.stage2_tlb.inst_misses            0                       # ITB inst misses
system.cpu.dtb.stage2_mmu.stage2_tlb.misses            0                       # DTB misses
system.cpu.dtb.stage2_mmu.stage2_tlb.perms_faults            0                       # Number of TLB faults due to permissions restrictions
system.cpu.dtb.stage2_mmu.stage2_tlb.prefetch_faults            0                       # Number of TLB faults due to prefetch
system.cpu.dtb.stage2_mmu.stage2_tlb.read_accesses            0                       # DTB read accesses
system.cpu.dtb.stage2_mmu.stage2_tlb.read_hits            0                       # DTB read hits
system.cpu.dtb.stage2_mmu.stage2_tlb.read_misses            0                       # DTB read misses
system.cpu.dtb.stage2_mmu.stage2_tlb.walker.walkRequestOrigin_Requested::Data            0                       # Table walker requests started/completed, data/inst
system.cpu.dtb.stage2_mmu.stage2_tlb.walker.walkRequestOrigin_Requested::Inst            0                       # Table walker requests started/completed, data/inst
system.cpu.dtb.stage2_mmu.stage2_tlb.walker.walkRequestOrigin_Requested::total            0                       # Table walker requests started/completed, data/inst
system.cpu.dtb.stage2_mmu.stage2_tlb.walker.walkRequestOrigin_Completed::Data            0                       # Table walker requests started/completed, data/inst
system.cpu.dtb.stage2_mmu.stage2_tlb.walker.walkRequestOrigin_Completed::Inst            0                       # Table walker requests started/completed, data/inst
system.cpu.dtb.stage2_mmu.stage2_tlb.walker.walkRequestOrigin_Completed::total            0                       # Table walker requests started/completed, data/inst
system.cpu.dtb.stage2_mmu.stage2_tlb.walker.walkRequestOrigin::total            0                       # Table walker requests started/completed, data/inst
system.cpu.dtb.stage2_mmu.stage2_tlb.walker.walks            0                       # Table walker walks requested
system.cpu.dtb.stage2_mmu.stage2_tlb.write_accesses            0                       # DTB write accesses
system.cpu.dtb.stage2_mmu.stage2_tlb.write_hits            0                       # DTB write hits
system.cpu.dtb.stage2_mmu.stage2_tlb.write_misses            0                       # DTB write misses
system.cpu.dtb.walker.walkRequestOrigin_Requested::Data            0                       # Table walker requests started/completed, data/inst
system.cpu.dtb.walker.walkRequestOrigin_Requested::Inst            0                       # Table walker requests started/completed, data/inst
system.cpu.dtb.walker.walkRequestOrigin_Requested::total            0                       # Table walker requests started/completed, data/inst
system.cpu.dtb.walker.walkRequestOrigin_Completed::Data            0                       # Table walker requests started/completed, data/inst
system.cpu.dtb.walker.walkRequestOrigin_Completed::Inst            0                       # Table walker requests started/completed, data/inst
system.cpu.dtb.walker.walkRequestOrigin_Completed::total            0                       # Table walker requests started/completed, data/inst
system.cpu.dtb.walker.walkRequestOrigin::total            0                       # Table walker requests started/completed, data/inst
system.cpu.dtb.walker.walks                         0                       # Table walker walks requested
system.cpu.dtb.write_accesses                       0                       # DTB write accesses
system.cpu.dtb.write_hits                           0                       # DTB write hits
system.cpu.dtb.write_misses                         0                       # DTB write misses
system.cpu.fetch2.amo_instructions                  0                       # Number of memory atomic instructions successfully decoded
system.cpu.fetch2.fp_instructions                   0                       # Number of floating point instructions successfully decoded
system.cpu.fetch2.int_instructions           49410707                       # Number of integer instructions successfully decoded
system.cpu.fetch2.load_instructions          36900750                       # Number of memory load instructions successfully decoded
system.cpu.fetch2.store_instructions         13094320                       # Number of memory store instructions successfully decoded
system.cpu.fetch2.vec_instructions                  0                       # Number of SIMD instructions successfully decoded
system.cpu.idleCycles                       270494026                       # Total number of cycles that the object has spent stopped
system.cpu.ipc                               0.254752                       # IPC: instructions per cycle
system.cpu.itb.accesses                             0                       # DTB accesses
system.cpu.itb.align_faults                         0                       # Number of TLB faults due to alignment restrictions
system.cpu.itb.domain_faults                        0                       # Number of TLB faults due to domain restrictions
system.cpu.itb.flush_entries                        0                       # Number of entries that have been flushed from TLB
system.cpu.itb.flush_tlb                            0                       # Number of times complete TLB was flushed
system.cpu.itb.flush_tlb_asid                       0                       # Number of times TLB was flushed by ASID
system.cpu.itb.flush_tlb_mva                        0                       # Number of times TLB was flushed by MVA
system.cpu.itb.flush_tlb_mva_asid                   0                       # Number of times TLB was flushed by MVA & ASID
system.cpu.itb.hits                                 0                       # DTB hits
system.cpu.itb.inst_accesses                        0                       # ITB inst accesses
system.cpu.itb.inst_hits                            0                       # ITB inst hits
system.cpu.itb.inst_misses                          0                       # ITB inst misses
system.cpu.itb.misses                               0                       # DTB misses
system.cpu.itb.perms_faults                         0                       # Number of TLB faults due to permissions restrictions
system.cpu.itb.prefetch_faults                      0                       # Number of TLB faults due to prefetch
system.cpu.itb.read_accesses                        0                       # DTB read accesses
system.cpu.itb.read_hits                            0                       # DTB read hits
system.cpu.itb.read_misses                          0                       # DTB read misses
system.cpu.itb.stage2_mmu.stage2_tlb.accesses            0                       # DTB accesses
system.cpu.itb.stage2_mmu.stage2_tlb.align_faults            0                       # Number of TLB faults due to alignment restrictions
system.cpu.itb.stage2_mmu.stage2_tlb.domain_faults            0                       # Number of TLB faults due to domain restrictions
system.cpu.itb.stage2_mmu.stage2_tlb.flush_entries            0                       # Number of entries that have been flushed from TLB
system.cpu.itb.stage2_mmu.stage2_tlb.flush_tlb            0                       # Number of times complete TLB was flushed
system.cpu.itb.stage2_mmu.stage2_tlb.flush_tlb_asid            0                       # Number of times TLB was flushed by ASID
system.cpu.itb.stage2_mmu.stage2_tlb.flush_tlb_mva            0                       # Number of times TLB was flushed by MVA
system.cpu.itb.stage2_mmu.stage2_tlb.flush_tlb_mva_asid            0                       # Number of times TLB was flushed by MVA & ASID
system.cpu.itb.stage2_mmu.stage2_tlb.hits            0                       # DTB hits
system.cpu.itb.stage2_mmu.stage2_tlb.inst_accesses            0                       # ITB inst accesses
system.cpu.itb.stage2_mmu.stage2_tlb.inst_hits            0                       # ITB inst hits
system.cpu.itb.stage2_mmu.stage2_tlb.inst_misses            0                       # ITB inst misses
system.cpu.itb.stage2_mmu.stage2_tlb.misses            0                       # DTB misses
system.cpu.itb.stage2_mmu.stage2_tlb.perms_faults            0                       # Number of TLB faults due to permissions restrictions
system.cpu.itb.stage2_mmu.stage2_tlb.prefetch_faults            0                       # Number of TLB faults due to prefetch
system.cpu.itb.stage2_mmu.stage2_tlb.read_accesses            0                       # DTB read accesses
system.cpu.itb.stage2_mmu.stage2_tlb.read_hits            0                       # DTB read hits
system.cpu.itb.stage2_mmu.stage2_tlb.read_misses            0                       # DTB read misses
system.cpu.itb.stage2_mmu.stage2_tlb.walker.walkRequestOrigin_Requested::Data            0                       # Table walker requests started/completed, data/inst
system.cpu.itb.stage2_mmu.stage2_tlb.walker.walkRequestOrigin_Requested::Inst            0                       # Table walker requests started/completed, data/inst
system.cpu.itb.stage2_mmu.stage2_tlb.walker.walkRequestOrigin_Requested::total            0                       # Table walker requests started/completed, data/inst
system.cpu.itb.stage2_mmu.stage2_tlb.walker.walkRequestOrigin_Completed::Data            0                       # Table walker requests started/completed, data/inst
system.cpu.itb.stage2_mmu.stage2_tlb.walker.walkRequestOrigin_Completed::Inst            0                       # Table walker requests started/completed, data/inst
system.cpu.itb.stage2_mmu.stage2_tlb.walker.walkRequestOrigin_Completed::total            0                       # Table walker requests started/completed, data/inst
system.cpu.itb.stage2_mmu.stage2_tlb.walker.walkRequestOrigin::total            0                       # Table walker requests started/completed, data/inst
system.cpu.itb.stage2_mmu.stage2_tlb.walker.walks            0                       # Table walker walks requested
system.cpu.itb.stage2_mmu.stage2_tlb.write_accesses            0                       # DTB write accesses
system.cpu.itb.stage2_mmu.stage2_tlb.write_hits            0                       # DTB write hits
system.cpu.itb.stage2_mmu.stage2_tlb.write_misses            0                       # DTB write misses
system.cpu.itb.walker.walkRequestOrigin_Requested::Data            0                       # Table walker requests started/completed, data/inst
system.cpu.itb.walker.walkRequestOrigin_Requested::Inst            0                       # Table walker requests started/completed, data/inst
system.cpu.itb.walker.walkRequestOrigin_Requested::total            0                       # Table walker requests started/completed, data/inst
system.cpu.itb.walker.walkRequestOrigin_Completed::Data            0                       # Table walker requests started/completed, data/inst
system.cpu.itb.walker.walkRequestOrigin_Completed::Inst            0                       # Table walker requests started/completed, data/inst
system.cpu.itb.walker.walkRequestOrigin_Completed::total            0                       # Table walker requests started/completed, data/inst
system.cpu.itb.walker.walkRequestOrigin::total            0                       # Table walker requests started/completed, data/inst
system.cpu.itb.walker.walks                         0                       # Table walker walks requested
system.cpu.itb.write_accesses                       0                       # DTB write accesses
system.cpu.itb.write_hits                           0                       # DTB write hits
system.cpu.itb.write_misses                         0                       # DTB write misses
system.cpu.numCycles                        392538904                       # number of cpu cycles simulated
system.cpu.numFetchSuspends                         0                       # Number of times Execute suspended instruction fetching
system.cpu.numWorkItemsCompleted                    0                       # number of work items this cpu completed
system.cpu.numWorkItemsStarted                      0                       # number of work items this cpu started
system.cpu.op_class_0::No_OpClass                   0      0.00%      0.00% # Class of committed instruction
system.cpu.op_class_0::IntAlu                50006957     50.01%     50.01% # Class of committed instruction
system.cpu.op_class_0::IntMult                     85      0.00%     50.01% # Class of committed instruction
system.cpu.op_class_0::IntDiv                       0      0.00%     50.01% # Class of committed instruction
system.cpu.op_class_0::FloatAdd                     0      0.00%     50.01% # Class of committed instruction
system.cpu.op_class_0::FloatCmp                     0      0.00%     50.01% # Class of committed instruction
system.cpu.op_class_0::FloatCvt                     0      0.00%     50.01% # Class of committed instruction
system.cpu.op_class_0::FloatMult                    0      0.00%     50.01% # Class of committed instruction
system.cpu.op_class_0::FloatMultAcc                 0      0.00%     50.01% # Class of committed instruction
system.cpu.op_class_0::FloatDiv                     0      0.00%     50.01% # Class of committed instruction
system.cpu.op_class_0::FloatMisc                    0      0.00%     50.01% # Class of committed instruction
system.cpu.op_class_0::FloatSqrt                    0      0.00%     50.01% # Class of committed instruction
system.cpu.op_class_0::SimdAdd                      0      0.00%     50.01% # Class of committed instruction
system.cpu.op_class_0::SimdAddAcc                   0      0.00%     50.01% # Class of committed instruction
system.cpu.op_class_0::SimdAlu                      0      0.00%     50.01% # Class of committed instruction
system.cpu.op_class_0::SimdCmp                      0      0.00%     50.01% # Class of committed instruction
system.cpu.op_class_0::SimdCvt                      0      0.00%     50.01% # Class of committed instruction
system.cpu.op_class_0::SimdMisc                     0      0.00%     50.01% # Class of committed instruction
system.cpu.op_class_0::SimdMult                     0      0.00%     50.01% # Class of committed instruction
system.cpu.op_class_0::SimdMultAcc                  0      0.00%     50.01% # Class of committed instruction
system.cpu.op_class_0::SimdShift                    0      0.00%     50.01% # Class of committed instruction
system.cpu.op_class_0::SimdShiftAcc                 0      0.00%     50.01% # Class of committed instruction
system.cpu.op_class_0::SimdDiv                      0      0.00%     50.01% # Class of committed instruction
system.cpu.op_class_0::SimdSqrt                     0      0.00%     50.01% # Class of committed instruction
system.cpu.op_class_0::SimdFloatAdd                 0      0.00%     50.01% # Class of committed instruction
system.cpu.op_class_0::SimdFloatAlu                 0      0.00%     50.01% # Class of committed instruction
system.cpu.op_class_0::SimdFloatCmp                 2      0.00%     50.01% # Class of committed instruction
system.cpu.op_class_0::SimdFloatCvt                 0      0.00%     50.01% # Class of committed instruction
system.cpu.op_class_0::SimdFloatDiv                 0      0.00%     50.01% # Class of committed instruction
system.cpu.op_class_0::SimdFloatMisc               22      0.00%     50.01% # Class of committed instruction
system.cpu.op_class_0::SimdFloatMult                0      0.00%     50.01% # Class of committed instruction
system.cpu.op_class_0::SimdFloatMultAcc             0      0.00%     50.01% # Class of committed instruction
system.cpu.op_class_0::SimdFloatSqrt                0      0.00%     50.01% # Class of committed instruction
system.cpu.op_class_0::SimdReduceAdd                0      0.00%     50.01% # Class of committed instruction
system.cpu.op_class_0::SimdReduceAlu                0      0.00%     50.01% # Class of committed instruction
system.cpu.op_class_0::SimdReduceCmp                0      0.00%     50.01% # Class of committed instruction
system.cpu.op_class_0::SimdFloatReduceAdd            0      0.00%     50.01% # Class of committed instruction
system.cpu.op_class_0::SimdFloatReduceCmp            0      0.00%     50.01% # Class of committed instruction
system.cpu.op_class_0::SimdAes                      0      0.00%     50.01% # Class of committed instruction
system.cpu.op_class_0::SimdAesMix                   0      0.00%     50.01% # Class of committed instruction
system.cpu.op_class_0::SimdSha1Hash                 0      0.00%     50.01% # Class of committed instruction
system.cpu.op_class_0::SimdSha1Hash2                0      0.00%     50.01% # Class of committed instruction
system.cpu.op_class_0::SimdSha256Hash               0      0.00%     50.01% # Class of committed instruction
system.cpu.op_class_0::SimdSha256Hash2              0      0.00%     50.01% # Class of committed instruction
system.cpu.op_class_0::SimdShaSigma2                0      0.00%     50.01% # Class of committed instruction
system.cpu.op_class_0::SimdShaSigma3                0      0.00%     50.01% # Class of committed instruction
system.cpu.op_class_0::SimdPredAlu                  0      0.00%     50.01% # Class of committed instruction
system.cpu.op_class_0::MemRead               36900878     36.90%     86.90% # Class of committed instruction
system.cpu.op_class_0::MemWrite              13095693     13.10%    100.00% # Class of committed instruction
system.cpu.op_class_0::FloatMemRead                 0      0.00%    100.00% # Class of committed instruction
system.cpu.op_class_0::FloatMemWrite                0      0.00%    100.00% # Class of committed instruction
system.cpu.op_class_0::IprAccess                    0      0.00%    100.00% # Class of committed instruction
system.cpu.op_class_0::InstPrefetch                 0      0.00%    100.00% # Class of committed instruction
system.cpu.op_class_0::total                100003637                       # Class of committed instruction
system.cpu.tickCycles                       122044878                       # Number of cycles that the object actually ticked
system.cpu.workload.numSyscalls                    18                       # Number of system calls
system.membus.snoop_filter.hit_multi_requests            0                       # Number of requests hitting in the snoop filter with multiple (>1) holders of the requested data.
system.membus.snoop_filter.hit_multi_snoops            0                       # Number of snoops hitting in the snoop filter with multiple (>1) holders of the requested data.
system.membus.snoop_filter.hit_single_requests      2959577                       # Number of requests hitting in the snoop filter with a single holder of the requested data.
system.membus.snoop_filter.hit_single_snoops            0                       # Number of snoops hitting in the snoop filter with a single holder of the requested data.
system.membus.snoop_filter.tot_requests       5936181                       # Total number of requests made to the snoop filter.
system.membus.snoop_filter.tot_snoops               0                       # Total number of snoops made to the snoop filter.
system.tol2bus.snoop_filter.hit_multi_requests         2936                       # Number of requests hitting in the snoop filter with multiple (>1) holders of the requested data.
system.tol2bus.snoop_filter.hit_multi_snoops            0                       # Number of snoops hitting in the snoop filter with multiple (>1) holders of the requested data.
system.tol2bus.snoop_filter.hit_single_requests      2982748                       # Number of requests hitting in the snoop filter with a single holder of the requested data.
system.tol2bus.snoop_filter.hit_single_snoops          643                       # Number of snoops hitting in the snoop filter with a single holder of the requested data.
system.tol2bus.snoop_filter.tot_requests      5968187                       # Total number of requests made to the snoop filter.
system.tol2bus.snoop_filter.tot_snoops            643                       # Total number of snoops made to the snoop filter.
system.membus.pwrStateResidencyTicks::UNDEFINED 392538904000                       # Cumulative time (in ticks) in various power states
system.membus.trans_dist::ReadResp                922                       # Transaction distribution
system.membus.trans_dist::WritebackDirty      2959323                       # Transaction distribution
system.membus.trans_dist::CleanEvict              254                       # Transaction distribution
system.membus.trans_dist::ReadExReq           2975682                       # Transaction distribution
system.membus.trans_dist::ReadExResp          2975682                       # Transaction distribution
system.membus.trans_dist::ReadSharedReq           922                       # Transaction distribution
system.membus.pkt_count_system.l2.mem_side::system.mem_ctrls.port      8912785                       # Packet count per connected master and slave (bytes)
system.membus.pkt_count::total                8912785                       # Packet count per connected master and slave (bytes)
system.membus.pkt_size_system.l2.mem_side::system.mem_ctrls.port    189949664                       # Cumulative packet size per connected master and slave (bytes)
system.membus.pkt_size::total               189949664                       # Cumulative packet size per connected master and slave (bytes)
system.membus.snoops                                0                       # Total snoops (count)
system.membus.snoopTraffic                          0                       # Total snoop traffic (bytes)
system.membus.snoop_fanout::samples           2976604                       # Request fanout histogram
system.membus.snoop_fanout::mean                    0                       # Request fanout histogram
system.membus.snoop_fanout::stdev                   0                       # Request fanout histogram
system.membus.snoop_fanout::underflows              0      0.00%      0.00% # Request fanout histogram
system.membus.snoop_fanout::0                 2976604    100.00%    100.00% # Request fanout histogram
system.membus.snoop_fanout::1                       0      0.00%    100.00% # Request fanout histogram
system.membus.snoop_fanout::overflows               0      0.00%    100.00% # Request fanout histogram
system.membus.snoop_fanout::min_value               0                       # Request fanout histogram
system.membus.snoop_fanout::max_value               0                       # Request fanout histogram
system.membus.snoop_fanout::total             2976604                       # Request fanout histogram
system.membus.respLayer1.occupancy         9719425000                       # Layer occupancy (ticks)
system.membus.respLayer1.utilization              2.5                       # Layer utilization (%)
system.membus.reqLayer0.occupancy         11854827000                       # Layer occupancy (ticks)
system.membus.reqLayer0.utilization               3.0                       # Layer utilization (%)
system.tol2bus.pwrStateResidencyTicks::UNDEFINED 392538904000                       # Cumulative time (in ticks) in various power states
system.tol2bus.trans_dist::ReadResp              6851                       # Transaction distribution
system.tol2bus.trans_dist::WritebackDirty      5938798                       # Transaction distribution
system.tol2bus.trans_dist::WritebackClean          211                       # Transaction distribution
system.tol2bus.trans_dist::CleanEvict            3958                       # Transaction distribution
system.tol2bus.trans_dist::ReadExReq          2978589                       # Transaction distribution
system.tol2bus.trans_dist::ReadExResp         2978588                       # Transaction distribution
system.tol2bus.trans_dist::ReadCleanReq           855                       # Transaction distribution
system.tol2bus.trans_dist::ReadSharedReq         5996                       # Transaction distribution
system.tol2bus.pkt_count_system.cpu.icache.mem_side::system.l2.cpu_side         1921                       # Packet count per connected master and slave (bytes)
system.tol2bus.pkt_count_system.cpu.dcache.mem_side::system.l2.cpu_side      8951705                       # Packet count per connected master and slave (bytes)
system.tol2bus.pkt_count::total               8953626                       # Packet count per connected master and slave (bytes)
system.tol2bus.pkt_size_system.cpu.icache.mem_side::system.l2.cpu_side        34112                       # Cumulative packet size per connected master and slave (bytes)
system.tol2bus.pkt_size_system.cpu.dcache.mem_side::system.l2.cpu_side    190849888                       # Cumulative packet size per connected master and slave (bytes)
system.tol2bus.pkt_size::total              190884000                       # Cumulative packet size per connected master and slave (bytes)
system.tol2bus.snoops                         2960220                       # Total snoops (count)
system.tol2bus.snoopTraffic                  94698336                       # Total snoop traffic (bytes)
system.tol2bus.snoop_fanout::samples          5945660                       # Request fanout histogram
system.tol2bus.snoop_fanout::mean            0.000602                       # Request fanout histogram
system.tol2bus.snoop_fanout::stdev           0.024531                       # Request fanout histogram
system.tol2bus.snoop_fanout::underflows             0      0.00%      0.00% # Request fanout histogram
system.tol2bus.snoop_fanout::0                5942080     99.94%     99.94% # Request fanout histogram
system.tol2bus.snoop_fanout::1                   3580      0.06%    100.00% # Request fanout histogram
system.tol2bus.snoop_fanout::2                      0      0.00%    100.00% # Request fanout histogram
system.tol2bus.snoop_fanout::overflows              0      0.00%    100.00% # Request fanout histogram
system.tol2bus.snoop_fanout::min_value              0                       # Request fanout histogram
system.tol2bus.snoop_fanout::max_value              1                       # Request fanout histogram
system.tol2bus.snoop_fanout::total            5945660                       # Request fanout histogram
system.tol2bus.reqLayer0.occupancy         8947873000                       # Layer occupancy (ticks)
system.tol2bus.reqLayer0.utilization              2.3                       # Layer utilization (%)
system.tol2bus.respLayer1.occupancy        5969172995                       # Layer occupancy (ticks)
system.tol2bus.respLayer1.utilization             1.5                       # Layer utilization (%)
system.tol2bus.respLayer0.occupancy           1710999                       # Layer occupancy (ticks)
system.tol2bus.respLayer0.utilization             0.0                       # Layer utilization (%)
system.voltage_domain.voltage                       1                       # Voltage in Volts
system.clk_domain.clock                          1000                       # Clock period in ticks
system.l2.pwrStateResidencyTicks::UNDEFINED 392538904000                       # Cumulative time (in ticks) in various power states
system.l2.demand_hits::.cpu.inst                   95                       # number of demand (read+write) hits
system.l2.demand_hits::.cpu.data                 8735                       # number of demand (read+write) hits
system.l2.demand_hits::total                     8830                       # number of demand (read+write) hits
system.l2.overall_hits::.cpu.inst                  95                       # number of overall hits
system.l2.overall_hits::.cpu.data                8735                       # number of overall hits
system.l2.overall_hits::total                    8830                       # number of overall hits
system.l2.demand_misses::.cpu.inst                760                       # number of demand (read+write) misses
system.l2.demand_misses::.cpu.data            2975850                       # number of demand (read+write) misses
system.l2.demand_misses::total                2976610                       # number of demand (read+write) misses
system.l2.overall_misses::.cpu.inst               760                       # number of overall misses
system.l2.overall_misses::.cpu.data           2975850                       # number of overall misses
system.l2.overall_misses::total               2976610                       # number of overall misses
system.l2.demand_miss_latency::.cpu.inst     73619000                       # number of demand (read+write) miss cycles
system.l2.demand_miss_latency::.cpu.data 289106901000                       # number of demand (read+write) miss cycles
system.l2.demand_miss_latency::total     289180520000                       # number of demand (read+write) miss cycles
system.l2.overall_miss_latency::.cpu.inst     73619000                       # number of overall miss cycles
system.l2.overall_miss_latency::.cpu.data 289106901000                       # number of overall miss cycles
system.l2.overall_miss_latency::total    289180520000                       # number of overall miss cycles
system.l2.demand_accesses::.cpu.inst              855                       # number of demand (read+write) accesses
system.l2.demand_accesses::.cpu.data          2984585                       # number of demand (read+write) accesses
system.l2.demand_accesses::total              2985440                       # number of demand (read+write) accesses
system.l2.overall_accesses::.cpu.inst             855                       # number of overall (read+write) accesses
system.l2.overall_accesses::.cpu.data         2984585                       # number of overall (read+write) accesses
system.l2.overall_accesses::total             2985440                       # number of overall (read+write) accesses
system.l2.demand_miss_rate::.cpu.inst        0.888889                       # miss rate for demand accesses
system.l2.demand_miss_rate::.cpu.data        0.997073                       # miss rate for demand accesses
system.l2.demand_miss_rate::total            0.997042                       # miss rate for demand accesses
system.l2.overall_miss_rate::.cpu.inst       0.888889                       # miss rate for overall accesses
system.l2.overall_miss_rate::.cpu.data       0.997073                       # miss rate for overall accesses
system.l2.overall_miss_rate::total           0.997042                       # miss rate for overall accesses
system.l2.demand_avg_miss_latency::.cpu.inst 96867.105263                       # average overall miss latency
system.l2.demand_avg_miss_latency::.cpu.data 97151.032814                       # average overall miss latency
system.l2.demand_avg_miss_latency::total 97150.960321                       # average overall miss latency
system.l2.overall_avg_miss_latency::.cpu.inst 96867.105263                       # average overall miss latency
system.l2.overall_avg_miss_latency::.cpu.data 97151.032814                       # average overall miss latency
system.l2.overall_avg_miss_latency::total 97150.960321                       # average overall miss latency
system.l2.blocked_cycles::no_mshrs                  0                       # number of cycles access was blocked
system.l2.blocked_cycles::no_targets                0                       # number of cycles access was blocked
system.l2.blocked::no_mshrs                         0                       # number of cycles access was blocked
system.l2.blocked::no_targets                       0                       # number of cycles access was blocked
system.l2.avg_blocked_cycles::no_mshrs            nan                       # average number of cycles each access was blocked
system.l2.avg_blocked_cycles::no_targets          nan                       # average number of cycles each access was blocked
system.l2.writebacks::.writebacks             2959323                       # number of writebacks
system.l2.writebacks::total                   2959323                       # number of writebacks
system.l2.demand_mshr_hits::.cpu.inst               1                       # number of demand (read+write) MSHR hits
system.l2.demand_mshr_hits::.cpu.data               4                       # number of demand (read+write) MSHR hits
system.l2.demand_mshr_hits::total                   5                       # number of demand (read+write) MSHR hits
system.l2.overall_mshr_hits::.cpu.inst              1                       # number of overall MSHR hits
system.l2.overall_mshr_hits::.cpu.data              4                       # number of overall MSHR hits
system.l2.overall_mshr_hits::total                  5                       # number of overall MSHR hits
system.l2.demand_mshr_misses::.cpu.inst           759                       # number of demand (read+write) MSHR misses
system.l2.demand_mshr_misses::.cpu.data       2975846                       # number of demand (read+write) MSHR misses
system.l2.demand_mshr_misses::total           2976605                       # number of demand (read+write) MSHR misses
system.l2.overall_mshr_misses::.cpu.inst          759                       # number of overall MSHR misses
system.l2.overall_mshr_misses::.cpu.data      2975846                       # number of overall MSHR misses
system.l2.overall_mshr_misses::total          2976605                       # number of overall MSHR misses
system.l2.demand_mshr_miss_latency::.cpu.inst     58362000                       # number of demand (read+write) MSHR miss cycles
system.l2.demand_mshr_miss_latency::.cpu.data 229589664000                       # number of demand (read+write) MSHR miss cycles
system.l2.demand_mshr_miss_latency::total 229648026000                       # number of demand (read+write) MSHR miss cycles
system.l2.overall_mshr_miss_latency::.cpu.inst     58362000                       # number of overall MSHR miss cycles
system.l2.overall_mshr_miss_latency::.cpu.data 229589664000                       # number of overall MSHR miss cycles
system.l2.overall_mshr_miss_latency::total 229648026000                       # number of overall MSHR miss cycles
system.l2.demand_mshr_miss_rate::.cpu.inst     0.887719                       # mshr miss rate for demand accesses
system.l2.demand_mshr_miss_rate::.cpu.data     0.997072                       # mshr miss rate for demand accesses
system.l2.demand_mshr_miss_rate::total       0.997041                       # mshr miss rate for demand accesses
system.l2.overall_mshr_miss_rate::.cpu.inst     0.887719                       # mshr miss rate for overall accesses
system.l2.overall_mshr_miss_rate::.cpu.data     0.997072                       # mshr miss rate for overall accesses
system.l2.overall_mshr_miss_rate::total      0.997041                       # mshr miss rate for overall accesses
system.l2.demand_avg_mshr_miss_latency::.cpu.inst 76893.280632                       # average overall mshr miss latency
system.l2.demand_avg_mshr_miss_latency::.cpu.data 77151.056876                       # average overall mshr miss latency
system.l2.demand_avg_mshr_miss_latency::total 77150.991146                       # average overall mshr miss latency
system.l2.overall_avg_mshr_miss_latency::.cpu.inst 76893.280632                       # average overall mshr miss latency
system.l2.overall_avg_mshr_miss_latency::.cpu.data 77151.056876                       # average overall mshr miss latency
system.l2.overall_avg_mshr_miss_latency::total 77150.991146                       # average overall mshr miss latency
system.l2.replacements                        2960220                       # number of replacements
system.l2.WritebackDirty_hits::.writebacks      2979475                       # number of WritebackDirty hits
system.l2.WritebackDirty_hits::total          2979475                       # number of WritebackDirty hits
system.l2.WritebackDirty_accesses::.writebacks      2979475                       # number of WritebackDirty accesses(hits+misses)
system.l2.WritebackDirty_accesses::total      2979475                       # number of WritebackDirty accesses(hits+misses)
system.l2.WritebackClean_hits::.writebacks          201                       # number of WritebackClean hits
system.l2.WritebackClean_hits::total              201                       # number of WritebackClean hits
system.l2.WritebackClean_accesses::.writebacks          201                       # number of WritebackClean accesses(hits+misses)
system.l2.WritebackClean_accesses::total          201                       # number of WritebackClean accesses(hits+misses)
system.l2.ReadExReq_hits::.cpu.data              2906                       # number of ReadExReq hits
system.l2.ReadExReq_hits::total                  2906                       # number of ReadExReq hits
system.l2.ReadExReq_misses::.cpu.data         2975683                       # number of ReadExReq misses
system.l2.ReadExReq_misses::total             2975683                       # number of ReadExReq misses
system.l2.ReadExReq_miss_latency::.cpu.data 289089944000                       # number of ReadExReq miss cycles
system.l2.ReadExReq_miss_latency::total  289089944000                       # number of ReadExReq miss cycles
system.l2.ReadExReq_accesses::.cpu.data       2978589                       # number of ReadExReq accesses(hits+misses)
system.l2.ReadExReq_accesses::total           2978589                       # number of ReadExReq accesses(hits+misses)
system.l2.ReadExReq_miss_rate::.cpu.data     0.999024                       # miss rate for ReadExReq accesses
system.l2.ReadExReq_miss_rate::total         0.999024                       # miss rate for ReadExReq accesses
system.l2.ReadExReq_avg_miss_latency::.cpu.data 97150.786559                       # average ReadExReq miss latency
system.l2.ReadExReq_avg_miss_latency::total 97150.786559                       # average ReadExReq miss latency
system.l2.ReadExReq_mshr_misses::.cpu.data      2975683                       # number of ReadExReq MSHR misses
system.l2.ReadExReq_mshr_misses::total        2975683                       # number of ReadExReq MSHR misses
system.l2.ReadExReq_mshr_miss_latency::.cpu.data 229576304000                       # number of ReadExReq MSHR miss cycles
system.l2.ReadExReq_mshr_miss_latency::total 229576304000                       # number of ReadExReq MSHR miss cycles
system.l2.ReadExReq_mshr_miss_rate::.cpu.data     0.999024                       # mshr miss rate for ReadExReq accesses
system.l2.ReadExReq_mshr_miss_rate::total     0.999024                       # mshr miss rate for ReadExReq accesses
system.l2.ReadExReq_avg_mshr_miss_latency::.cpu.data 77150.793280                       # average ReadExReq mshr miss latency
system.l2.ReadExReq_avg_mshr_miss_latency::total 77150.793280                       # average ReadExReq mshr miss latency
system.l2.ReadCleanReq_hits::.cpu.inst             95                       # number of ReadCleanReq hits
system.l2.ReadCleanReq_hits::total                 95                       # number of ReadCleanReq hits
system.l2.ReadCleanReq_misses::.cpu.inst          760                       # number of ReadCleanReq misses
system.l2.ReadCleanReq_misses::total              760                       # number of ReadCleanReq misses
system.l2.ReadCleanReq_miss_latency::.cpu.inst     73619000                       # number of ReadCleanReq miss cycles
system.l2.ReadCleanReq_miss_latency::total     73619000                       # number of ReadCleanReq miss cycles
system.l2.ReadCleanReq_accesses::.cpu.inst          855                       # number of ReadCleanReq accesses(hits+misses)
system.l2.ReadCleanReq_accesses::total            855                       # number of ReadCleanReq accesses(hits+misses)
system.l2.ReadCleanReq_miss_rate::.cpu.inst     0.888889                       # miss rate for ReadCleanReq accesses
system.l2.ReadCleanReq_miss_rate::total      0.888889                       # miss rate for ReadCleanReq accesses
system.l2.ReadCleanReq_avg_miss_latency::.cpu.inst 96867.105263                       # average ReadCleanReq miss latency
system.l2.ReadCleanReq_avg_miss_latency::total 96867.105263                       # average ReadCleanReq miss latency
system.l2.ReadCleanReq_mshr_hits::.cpu.inst            1                       # number of ReadCleanReq MSHR hits
system.l2.ReadCleanReq_mshr_hits::total             1                       # number of ReadCleanReq MSHR hits
system.l2.ReadCleanReq_mshr_misses::.cpu.inst          759                       # number of ReadCleanReq MSHR misses
system.l2.ReadCleanReq_mshr_misses::total          759                       # number of ReadCleanReq MSHR misses
system.l2.ReadCleanReq_mshr_miss_latency::.cpu.inst     58362000                       # number of ReadCleanReq MSHR miss cycles
system.l2.ReadCleanReq_mshr_miss_latency::total     58362000                       # number of ReadCleanReq MSHR miss cycles
system.l2.ReadCleanReq_mshr_miss_rate::.cpu.inst     0.887719                       # mshr miss rate for ReadCleanReq accesses
system.l2.ReadCleanReq_mshr_miss_rate::total     0.887719                       # mshr miss rate for ReadCleanReq accesses
system.l2.ReadCleanReq_avg_mshr_miss_latency::.cpu.inst 76893.280632                       # average ReadCleanReq mshr miss latency
system.l2.ReadCleanReq_avg_mshr_miss_latency::total 76893.280632                       # average ReadCleanReq mshr miss latency
system.l2.ReadSharedReq_hits::.cpu.data          5829                       # number of ReadSharedReq hits
system.l2.ReadSharedReq_hits::total              5829                       # number of ReadSharedReq hits
system.l2.ReadSharedReq_misses::.cpu.data          167                       # number of ReadSharedReq misses
system.l2.ReadSharedReq_misses::total             167                       # number of ReadSharedReq misses
system.l2.ReadSharedReq_miss_latency::.cpu.data     16957000                       # number of ReadSharedReq miss cycles
system.l2.ReadSharedReq_miss_latency::total     16957000                       # number of ReadSharedReq miss cycles
system.l2.ReadSharedReq_accesses::.cpu.data         5996                       # number of ReadSharedReq accesses(hits+misses)
system.l2.ReadSharedReq_accesses::total          5996                       # number of ReadSharedReq accesses(hits+misses)
system.l2.ReadSharedReq_miss_rate::.cpu.data     0.027852                       # miss rate for ReadSharedReq accesses
system.l2.ReadSharedReq_miss_rate::total     0.027852                       # miss rate for ReadSharedReq accesses
system.l2.ReadSharedReq_avg_miss_latency::.cpu.data 101538.922156                       # average ReadSharedReq miss latency
system.l2.ReadSharedReq_avg_miss_latency::total 101538.922156                       # average ReadSharedReq miss latency
system.l2.ReadSharedReq_mshr_hits::.cpu.data            4                       # number of ReadSharedReq MSHR hits
system.l2.ReadSharedReq_mshr_hits::total            4                       # number of ReadSharedReq MSHR hits
system.l2.ReadSharedReq_mshr_misses::.cpu.data          163                       # number of ReadSharedReq MSHR misses
system.l2.ReadSharedReq_mshr_misses::total          163                       # number of ReadSharedReq MSHR misses
system.l2.ReadSharedReq_mshr_miss_latency::.cpu.data     13360000                       # number of ReadSharedReq MSHR miss cycles
system.l2.ReadSharedReq_mshr_miss_latency::total     13360000                       # number of ReadSharedReq MSHR miss cycles
system.l2.ReadSharedReq_mshr_miss_rate::.cpu.data     0.027185                       # mshr miss rate for ReadSharedReq accesses
system.l2.ReadSharedReq_mshr_miss_rate::total     0.027185                       # mshr miss rate for ReadSharedReq accesses
system.l2.ReadSharedReq_avg_mshr_miss_latency::.cpu.data 81963.190184                       # average ReadSharedReq mshr miss latency
system.l2.ReadSharedReq_avg_mshr_miss_latency::total 81963.190184                       # average ReadSharedReq mshr miss latency
system.l2.tags.pwrStateResidencyTicks::UNDEFINED 392538904000                       # Cumulative time (in ticks) in various power states
system.l2.tags.tagsinuse                 16338.917762                       # Cycle average of tags in use
system.l2.tags.total_refs                     5965245                       # Total number of references to valid blocks.
system.l2.tags.sampled_refs                   2976604                       # Sample count of references to valid blocks.
system.l2.tags.avg_refs                      2.004044                       # Average number of references to valid blocks.
system.l2.tags.warmup_cycle                     87000                       # Cycle when the warmup percentage was hit.
system.l2.tags.occ_blocks::.cpu.inst         4.109089                       # Average occupied blocks per requestor
system.l2.tags.occ_blocks::.cpu.data     16334.808674                       # Average occupied blocks per requestor
system.l2.tags.occ_percent::.cpu.inst        0.000251                       # Average percentage of cache occupancy
system.l2.tags.occ_percent::.cpu.data        0.996998                       # Average percentage of cache occupancy
system.l2.tags.occ_percent::total            0.997248                       # Average percentage of cache occupancy
system.l2.tags.occ_task_id_blocks::1024         16384                       # Occupied blocks per task id
system.l2.tags.age_task_id_blocks_1024::0           77                       # Occupied blocks per task id
system.l2.tags.age_task_id_blocks_1024::1          680                       # Occupied blocks per task id
system.l2.tags.age_task_id_blocks_1024::2         6824                       # Occupied blocks per task id
system.l2.tags.age_task_id_blocks_1024::3         8801                       # Occupied blocks per task id
system.l2.tags.age_task_id_blocks_1024::4            2                       # Occupied blocks per task id
system.l2.tags.occ_task_id_percent::1024            1                       # Percentage of cache occupancy per task id
system.l2.tags.tag_accesses                  14907106                       # Number of tag accesses
system.l2.tags.data_accesses                 14907106                       # Number of data accesses
system.cpu_voltage_domain.voltage                   1                       # Voltage in Volts
system.mem_ctrls.pwrStateResidencyTicks::UNDEFINED 392538904000                       # Cumulative time (in ticks) in various power states
system.mem_ctrls.bytes_read::.cpu.inst          24288                       # Number of bytes read from this memory
system.mem_ctrls.bytes_read::.cpu.data       95227040                       # Number of bytes read from this memory
system.mem_ctrls.bytes_read::total           95251328                       # Number of bytes read from this memory
system.mem_ctrls.bytes_inst_read::.cpu.inst        24288                       # Number of instructions bytes read from this memory
system.mem_ctrls.bytes_inst_read::total         24288                       # Number of instructions bytes read from this memory
system.mem_ctrls.bytes_written::.writebacks     94698336                       # Number of bytes written to this memory
system.mem_ctrls.bytes_written::total        94698336                       # Number of bytes written to this memory
system.mem_ctrls.num_reads::.cpu.inst             759                       # Number of read requests responded to by this memory
system.mem_ctrls.num_reads::.cpu.data         2975845                       # Number of read requests responded to by this memory
system.mem_ctrls.num_reads::total             2976604                       # Number of read requests responded to by this memory
system.mem_ctrls.num_writes::.writebacks      2959323                       # Number of write requests responded to by this memory
system.mem_ctrls.num_writes::total            2959323                       # Number of write requests responded to by this memory
system.mem_ctrls.bw_read::.cpu.inst             61874                       # Total read bandwidth from this memory (bytes/s)
system.mem_ctrls.bw_read::.cpu.data         242592617                       # Total read bandwidth from this memory (bytes/s)
system.mem_ctrls.bw_read::total             242654491                       # Total read bandwidth from this memory (bytes/s)
system.mem_ctrls.bw_inst_read::.cpu.inst        61874                       # Instruction read bandwidth from this memory (bytes/s)
system.mem_ctrls.bw_inst_read::total            61874                       # Instruction read bandwidth from this memory (bytes/s)
system.mem_ctrls.bw_write::.writebacks      241245734                       # Write bandwidth from this memory (bytes/s)
system.mem_ctrls.bw_write::total            241245734                       # Write bandwidth from this memory (bytes/s)
system.mem_ctrls.bw_total::.writebacks      241245734                       # Total bandwidth to/from this memory (bytes/s)
system.mem_ctrls.bw_total::.cpu.inst            61874                       # Total bandwidth to/from this memory (bytes/s)
system.mem_ctrls.bw_total::.cpu.data        242592617                       # Total bandwidth to/from this memory (bytes/s)
system.mem_ctrls.bw_total::total            483900225                       # Total bandwidth to/from this memory (bytes/s)
system.mem_ctrls.avgPriority_.writebacks::samples   1480412.00                       # Average QoS priority value for accepted requests
system.mem_ctrls.avgPriority_.cpu.inst::samples       759.00                       # Average QoS priority value for accepted requests
system.mem_ctrls.avgPriority_.cpu.data::samples   2975845.00                       # Average QoS priority value for accepted requests
system.mem_ctrls.priorityMinLatency      0.000000018750                       # per QoS priority minimum request to response latency (s)
system.mem_ctrls.priorityMaxLatency      0.001211508500                       # per QoS priority maximum request to response latency (s)
system.mem_ctrls.numReadWriteTurnArounds        92331                       # Number of turnarounds from READ to WRITE
system.mem_ctrls.numWriteReadTurnArounds        92331                       # Number of turnarounds from WRITE to READ
system.mem_ctrls.numStayReadState             8919658                       # Number of times bus staying in READ state
system.mem_ctrls.numStayWriteState            1388626                       # Number of times bus staying in WRITE state
system.mem_ctrls.readReqs                     2976604                       # Number of read requests accepted
system.mem_ctrls.writeReqs                    2959323                       # Number of write requests accepted
system.mem_ctrls.readBursts                   2976604                       # Number of DRAM read bursts, including those serviced by the write queue
system.mem_ctrls.writeBursts                  2959323                       # Number of DRAM write bursts, including those merged in the write queue
system.mem_ctrls.servicedByWrQ                      0                       # Number of DRAM read bursts serviced by the write queue
system.mem_ctrls.mergedWrBursts               1478911                       # Number of DRAM write bursts merged with an existing one
system.mem_ctrls.neitherReadNorWriteReqs            0                       # Number of requests that are neither read nor write
system.mem_ctrls.perBankRdBursts::0            186081                       # Per bank write bursts
system.mem_ctrls.perBankRdBursts::1            185912                       # Per bank write bursts
system.mem_ctrls.perBankRdBursts::2            185964                       # Per bank write bursts
system.mem_ctrls.perBankRdBursts::3            185998                       # Per bank write bursts
system.mem_ctrls.perBankRdBursts::4            186179                       # Per bank write bursts
system.mem_ctrls.perBankRdBursts::5            186139                       # Per bank write bursts
system.mem_ctrls.perBankRdBursts::6            186119                       # Per bank write bursts
system.mem_ctrls.perBankRdBursts::7            186147                       # Per bank write bursts
system.mem_ctrls.perBankRdBursts::8            186258                       # Per bank write bursts
system.mem_ctrls.perBankRdBursts::9            186131                       # Per bank write bursts
system.mem_ctrls.perBankRdBursts::10           186086                       # Per bank write bursts
system.mem_ctrls.perBankRdBursts::11           185894                       # Per bank write bursts
system.mem_ctrls.perBankRdBursts::12           185961                       # Per bank write bursts
system.mem_ctrls.perBankRdBursts::13           185889                       # Per bank write bursts
system.mem_ctrls.perBankRdBursts::14           185896                       # Per bank write bursts
system.mem_ctrls.perBankRdBursts::15           185950                       # Per bank write bursts
system.mem_ctrls.perBankWrBursts::0             92822                       # Per bank write bursts
system.mem_ctrls.perBankWrBursts::1             92803                       # Per bank write bursts
system.mem_ctrls.perBankWrBursts::2             92431                       # Per bank write bursts
system.mem_ctrls.perBankWrBursts::3             92485                       # Per bank write bursts
system.mem_ctrls.perBankWrBursts::4             92545                       # Per bank write bursts
system.mem_ctrls.perBankWrBursts::5             92545                       # Per bank write bursts
system.mem_ctrls.perBankWrBursts::6             92544                       # Per bank write bursts
system.mem_ctrls.perBankWrBursts::7             92544                       # Per bank write bursts
system.mem_ctrls.perBankWrBursts::8             92554                       # Per bank write bursts
system.mem_ctrls.perBankWrBursts::9             92544                       # Per bank write bursts
system.mem_ctrls.perBankWrBursts::10            92482                       # Per bank write bursts
system.mem_ctrls.perBankWrBursts::11            92416                       # Per bank write bursts
system.mem_ctrls.perBankWrBursts::12            92416                       # Per bank write bursts
system.mem_ctrls.perBankWrBursts::13            92416                       # Per bank write bursts
system.mem_ctrls.perBankWrBursts::14            92416                       # Per bank write bursts
system.mem_ctrls.perBankWrBursts::15            92420                       # Per bank write bursts
system.mem_ctrls.avgRdQLen                       1.00                       # Average read queue length when enqueuing
system.mem_ctrls.avgWrQLen                      25.56                       # Average write queue length when enqueuing
system.mem_ctrls.totQLat                  21240284000                       # Total ticks spent queuing
system.mem_ctrls.totBusLat                14883020000                       # Total ticks spent in databus transfers
system.mem_ctrls.totMemAccLat             77051609000                       # Total ticks spent from burst creation until serviced by the DRAM
system.mem_ctrls.avgQLat                      7135.74                       # Average queueing delay per DRAM burst
system.mem_ctrls.avgBusLat                    5000.00                       # Average bus latency per DRAM burst
system.mem_ctrls.avgMemAccLat                25885.74                       # Average memory access latency per DRAM burst
system.mem_ctrls.numRdRetry                         0                       # Number of times read queue was full causing retry
system.mem_ctrls.numWrRetry                         0                       # Number of times write queue was full causing retry
system.mem_ctrls.readRowHits                  2735198                       # Number of row buffer hits during reads
system.mem_ctrls.writeRowHits                 1375041                       # Number of row buffer hits during writes
system.mem_ctrls.readRowHitRate                 91.89                       # Row buffer hit rate for reads
system.mem_ctrls.writeRowHitRate                92.88                       # Row buffer hit rate for writes
system.mem_ctrls.readPktSize::0                     0                       # Read request sizes (log2)
system.mem_ctrls.readPktSize::1                     0                       # Read request sizes (log2)
system.mem_ctrls.readPktSize::2                     0                       # Read request sizes (log2)
system.mem_ctrls.readPktSize::3                     0                       # Read request sizes (log2)
system.mem_ctrls.readPktSize::4                     0                       # Read request sizes (log2)
system.mem_ctrls.readPktSize::5               2976604                       # Read request sizes (log2)
system.mem_ctrls.readPktSize::6                     0                       # Read request sizes (log2)
system.mem_ctrls.writePktSize::0                    0                       # Write request sizes (log2)
system.mem_ctrls.writePktSize::1                    0                       # Write request sizes (log2)
system.mem_ctrls.writePktSize::2                    0                       # Write request sizes (log2)
system.mem_ctrls.writePktSize::3                    0                       # Write request sizes (log2)
system.mem_ctrls.writePktSize::4                    0                       # Write request sizes (log2)
system.mem_ctrls.writePktSize::5              2959323                       # Write request sizes (log2)
system.mem_ctrls.writePktSize::6                    0                       # Write request sizes (log2)
system.mem_ctrls.rdQLenPdf::0                 2976457                       # What read queue length does an incoming req see
system.mem_ctrls.rdQLenPdf::1                     133                       # What read queue length does an incoming req see
system.mem_ctrls.rdQLenPdf::2                      12                       # What read queue length does an incoming req see
system.mem_ctrls.rdQLenPdf::3                       2                       # What read queue length does an incoming req see
system.mem_ctrls.rdQLenPdf::4                       0                       # What read queue length does an incoming req see
system.mem_ctrls.rdQLenPdf::5                       0                       # What read queue length does an incoming req see
system.mem_ctrls.rdQLenPdf::6                       0                       # What read queue length does an incoming req see
system.mem_ctrls.rdQLenPdf::7                       0                       # What read queue length does an incoming req see
system.mem_ctrls.rdQLenPdf::8                       0                       # What read queue length does an incoming req see
system.mem_ctrls.rdQLenPdf::9                       0                       # What read queue length does an incoming req see
system.mem_ctrls.rdQLenPdf::10                      0                       # What read queue length does an incoming req see
system.mem_ctrls.rdQLenPdf::11                      0                       # What read queue length does an incoming req see
system.mem_ctrls.rdQLenPdf::12                      0                       # What read queue length does an incoming req see
system.mem_ctrls.rdQLenPdf::13                      0                       # What read queue length does an incoming req see
system.mem_ctrls.rdQLenPdf::14                      0                       # What read queue length does an incoming req see
system.mem_ctrls.rdQLenPdf::15                      0                       # What read queue length does an incoming req see
system.mem_ctrls.rdQLenPdf::16                      0                       # What read queue length does an incoming req see
system.mem_ctrls.rdQLenPdf::17                      0                       # What read queue length does an incoming req see
system.mem_ctrls.rdQLenPdf::18                      0                       # What read queue length does an incoming req see
system.mem_ctrls.rdQLenPdf::19                      0                       # What read queue length does an incoming req see
system.mem_ctrls.rdQLenPdf::20                      0                       # What read queue length does an incoming req see
system.mem_ctrls.rdQLenPdf::21                      0                       # What read queue length does an incoming req see
system.mem_ctrls.rdQLenPdf::22                      0                       # What read queue length does an incoming req see
system.mem_ctrls.rdQLenPdf::23                      0                       # What read queue length does an incoming req see
system.mem_ctrls.rdQLenPdf::24                      0                       # What read queue length does an incoming req see
system.mem_ctrls.rdQLenPdf::25                      0                       # What read queue length does an incoming req see
system.mem_ctrls.rdQLenPdf::26                      0                       # What read queue length does an incoming req see
system.mem_ctrls.rdQLenPdf::27                      0                       # What read queue length does an incoming req see
system.mem_ctrls.rdQLenPdf::28                      0                       # What read queue length does an incoming req see
system.mem_ctrls.rdQLenPdf::29                      0                       # What read queue length does an incoming req see
system.mem_ctrls.rdQLenPdf::30                      0                       # What read queue length does an incoming req see
system.mem_ctrls.rdQLenPdf::31                      0                       # What read queue length does an incoming req see
system.mem_ctrls.wrQLenPdf::0                       1                       # What write queue length does an incoming req see
system.mem_ctrls.wrQLenPdf::1                       1                       # What write queue length does an incoming req see
system.mem_ctrls.wrQLenPdf::2                       1                       # What write queue length does an incoming req see
system.mem_ctrls.wrQLenPdf::3                       1                       # What write queue length does an incoming req see
system.mem_ctrls.wrQLenPdf::4                       1                       # What write queue length does an incoming req see
system.mem_ctrls.wrQLenPdf::5                       1                       # What write queue length does an incoming req see
system.mem_ctrls.wrQLenPdf::6                       1                       # What write queue length does an incoming req see
system.mem_ctrls.wrQLenPdf::7                       1                       # What write queue length does an incoming req see
system.mem_ctrls.wrQLenPdf::8                       1                       # What write queue length does an incoming req see
system.mem_ctrls.wrQLenPdf::9                       1                       # What write queue length does an incoming req see
system.mem_ctrls.wrQLenPdf::10                      1                       # What write queue length does an incoming req see
system.mem_ctrls.wrQLenPdf::11                      1                       # What write queue length does an incoming req see
system.mem_ctrls.wrQLenPdf::12                      1                       # What write queue length does an incoming req see
system.mem_ctrls.wrQLenPdf::13                      1                       # What write queue length does an incoming req see
system.mem_ctrls.wrQLenPdf::14                      1                       # What write queue length does an incoming req see
system.mem_ctrls.wrQLenPdf::15                   1537                       # What write queue length does an incoming req see
system.mem_ctrls.wrQLenPdf::16                   1552                       # What write queue length does an incoming req see
system.mem_ctrls.wrQLenPdf::17                  92332                       # What write queue length does an incoming req see
system.mem_ctrls.wrQLenPdf::18                  92332                       # What write queue length does an incoming req see
system.mem_ctrls.wrQLenPdf::19                  92332                       # What write queue length does an incoming req see
system.mem_ctrls.wrQLenPdf::20                  92332                       # What write queue length does an incoming req see
system.mem_ctrls.wrQLenPdf::21                  92332                       # What write queue length does an incoming req see
system.mem_ctrls.wrQLenPdf::22                  92332                       # What write queue length does an incoming req see
system.mem_ctrls.wrQLenPdf::23                  92332                       # What write queue length does an incoming req see
system.mem_ctrls.wrQLenPdf::24                  92332                       # What write queue length does an incoming req see
system.mem_ctrls.wrQLenPdf::25                  92332                       # What write queue length does an incoming req see
system.mem_ctrls.wrQLenPdf::26                  92332                       # What write queue length does an incoming req see
system.mem_ctrls.wrQLenPdf::27                  92332                       # What write queue length does an incoming req see
system.mem_ctrls.wrQLenPdf::28                  92332                       # What write queue length does an incoming req see
system.mem_ctrls.wrQLenPdf::29                  92331                       # What write queue length does an incoming req see
system.mem_ctrls.wrQLenPdf::30                  92331                       # What write queue length does an incoming req see
system.mem_ctrls.wrQLenPdf::31                  92331                       # What write queue length does an incoming req see
system.mem_ctrls.wrQLenPdf::32                  92331                       # What write queue length does an incoming req see
system.mem_ctrls.wrQLenPdf::33                      0                       # What write queue length does an incoming req see
system.mem_ctrls.wrQLenPdf::34                      0                       # What write queue length does an incoming req see
system.mem_ctrls.wrQLenPdf::35                      0                       # What write queue length does an incoming req see
system.mem_ctrls.wrQLenPdf::36                      0                       # What write queue length does an incoming req see
system.mem_ctrls.wrQLenPdf::37                      0                       # What write queue length does an incoming req see
system.mem_ctrls.wrQLenPdf::38                      0                       # What write queue length does an incoming req see
system.mem_ctrls.wrQLenPdf::39                      0                       # What write queue length does an incoming req see
system.mem_ctrls.wrQLenPdf::40                      0                       # What write queue length does an incoming req see
system.mem_ctrls.wrQLenPdf::41                      0                       # What write queue length does an incoming req see
system.mem_ctrls.wrQLenPdf::42                      0                       # What write queue length does an incoming req see
system.mem_ctrls.wrQLenPdf::43                      0                       # What write queue length does an incoming req see
system.mem_ctrls.wrQLenPdf::44                      0                       # What write queue length does an incoming req see
system.mem_ctrls.wrQLenPdf::45                      0                       # What write queue length does an incoming req see
system.mem_ctrls.wrQLenPdf::46                      0                       # What write queue length does an incoming req see
system.mem_ctrls.wrQLenPdf::47                      0                       # What write queue length does an incoming req see
system.mem_ctrls.wrQLenPdf::48                      0                       # What write queue length does an incoming req see
system.mem_ctrls.wrQLenPdf::49                      0                       # What write queue length does an incoming req see
system.mem_ctrls.wrQLenPdf::50                      0                       # What write queue length does an incoming req see
system.mem_ctrls.wrQLenPdf::51                      0                       # What write queue length does an incoming req see
system.mem_ctrls.wrQLenPdf::52                      0                       # What write queue length does an incoming req see
system.mem_ctrls.wrQLenPdf::53                      0                       # What write queue length does an incoming req see
system.mem_ctrls.wrQLenPdf::54                      0                       # What write queue length does an incoming req see
system.mem_ctrls.wrQLenPdf::55                      0                       # What write queue length does an incoming req see
system.mem_ctrls.wrQLenPdf::56                      0                       # What write queue length does an incoming req see
system.mem_ctrls.wrQLenPdf::57                      0                       # What write queue length does an incoming req see
system.mem_ctrls.wrQLenPdf::58                      0                       # What write queue length does an incoming req see
system.mem_ctrls.wrQLenPdf::59                      0                       # What write queue length does an incoming req see
system.mem_ctrls.wrQLenPdf::60                      0                       # What write queue length does an incoming req see
system.mem_ctrls.wrQLenPdf::61                      0                       # What write queue length does an incoming req see
system.mem_ctrls.wrQLenPdf::62                      0                       # What write queue length does an incoming req see
system.mem_ctrls.wrQLenPdf::63                      0                       # What write queue length does an incoming req see
system.mem_ctrls.bytesPerActivate::samples       346747                       # Bytes accessed per row activation
system.mem_ctrls.bytesPerActivate::mean    822.636816                       # Bytes accessed per row activation
system.mem_ctrls.bytesPerActivate::gmean   703.614930                       # Bytes accessed per row activation
system.mem_ctrls.bytesPerActivate::stdev   313.056619                       # Bytes accessed per row activation
system.mem_ctrls.bytesPerActivate::0-127        12330      3.56%      3.56% # Bytes accessed per row activation
system.mem_ctrls.bytesPerActivate::128-255        20463      5.90%      9.46% # Bytes accessed per row activation
system.mem_ctrls.bytesPerActivate::256-383        15771      4.55%     14.01% # Bytes accessed per row activation
system.mem_ctrls.bytesPerActivate::384-511        16543      4.77%     18.78% # Bytes accessed per row activation
system.mem_ctrls.bytesPerActivate::512-639        17620      5.08%     23.86% # Bytes accessed per row activation
system.mem_ctrls.bytesPerActivate::640-767        14852      4.28%     28.14% # Bytes accessed per row activation
system.mem_ctrls.bytesPerActivate::768-895        15626      4.51%     32.65% # Bytes accessed per row activation
system.mem_ctrls.bytesPerActivate::896-1023        17975      5.18%     37.83% # Bytes accessed per row activation
system.mem_ctrls.bytesPerActivate::1024-1151       215567     62.17%    100.00% # Bytes accessed per row activation
system.mem_ctrls.bytesPerActivate::total       346747                       # Bytes accessed per row activation
system.mem_ctrls.rdPerTurnAround::samples        92331                       # Reads before turning the bus around for writes
system.mem_ctrls.rdPerTurnAround::mean      32.238132                       # Reads before turning the bus around for writes
system.mem_ctrls.rdPerTurnAround::gmean     32.053351                       # Reads before turning the bus around for writes
system.mem_ctrls.rdPerTurnAround::stdev     43.592950                       # Reads before turning the bus around for writes
system.mem_ctrls.rdPerTurnAround::0-511         92329    100.00%    100.00% # Reads before turning the bus around for writes
system.mem_ctrls.rdPerTurnAround::4096-4607            1      0.00%    100.00% # Reads before turning the bus around for writes
system.mem_ctrls.rdPerTurnAround::12288-12799            1      0.00%    100.00% # Reads before turning the bus around for writes
system.mem_ctrls.rdPerTurnAround::total         92331                       # Reads before turning the bus around for writes
system.mem_ctrls.wrPerTurnAround::samples        92331                       # Writes before turning the bus around for reads
system.mem_ctrls.wrPerTurnAround::mean      16.033434                       # Writes before turning the bus around for reads
system.mem_ctrls.wrPerTurnAround::gmean     16.031539                       # Writes before turning the bus around for reads
[...]
system.cpu.icache.tags.occ_blocks::.cpu.inst   643.916237                       # Average occupied blocks per requestor
system.cpu.icache.tags.occ_percent::.cpu.inst     0.314412                       # Average percentage of cache occupancy
system.cpu.icache.tags.occ_percent::total     0.314412                       # Average percentage of cache occupancy
system.cpu.icache.tags.occ_task_id_blocks::1024          644                       # Occupied blocks per task id
system.cpu.icache.tags.age_task_id_blocks_1024::4          644                       # Occupied blocks per task id
system.cpu.icache.tags.occ_task_id_percent::1024     0.314453                       # Percentage of cache occupancy per task id
system.cpu.icache.tags.tag_accesses           9532043                       # Number of tag accesses
system.cpu.icache.tags.data_accesses          9532043                       # Number of data accesses
system.cpu.dtb.walker.pwrStateResidencyTicks::UNDEFINED 392538904000                       # Cumulative time (in ticks) in various power states
system.cpu.dtb.stage2_mmu.stage2_tlb.walker.pwrStateResidencyTicks::UNDEFINED 392538904000                       # Cumulative time (in ticks) in various power states
system.cpu.dcache.pwrStateResidencyTicks::UNDEFINED 392538904000                       # Cumulative time (in ticks) in various power states
system.cpu.dcache.demand_hits::.cpu.data     42843537                       # number of demand (read+write) hits
system.cpu.dcache.demand_hits::total         42843537                       # number of demand (read+write) hits
system.cpu.dcache.overall_hits::.cpu.data     42843566                       # number of overall hits
system.cpu.dcache.overall_hits::total        42843566                       # number of overall hits
system.cpu.dcache.demand_misses::.cpu.data      5963114                       # number of demand (read+write) misses
system.cpu.dcache.demand_misses::total        5963114                       # number of demand (read+write) misses
system.cpu.dcache.overall_misses::.cpu.data      5963137                       # number of overall misses
system.cpu.dcache.overall_misses::total       5963137                       # number of overall misses
system.cpu.dcache.demand_miss_latency::.cpu.data 574003024000                       # number of demand (read+write) miss cycles
system.cpu.dcache.demand_miss_latency::total 574003024000                       # number of demand (read+write) miss cycles
system.cpu.dcache.overall_miss_latency::.cpu.data 574003024000                       # number of overall miss cycles
system.cpu.dcache.overall_miss_latency::total 574003024000                       # number of overall miss cycles
system.cpu.dcache.demand_accesses::.cpu.data     48806651                       # number of demand (read+write) accesses
system.cpu.dcache.demand_accesses::total     48806651                       # number of demand (read+write) accesses
system.cpu.dcache.overall_accesses::.cpu.data     48806703                       # number of overall (read+write) accesses
system.cpu.dcache.overall_accesses::total     48806703                       # number of overall (read+write) accesses
system.cpu.dcache.demand_miss_rate::.cpu.data     0.122178                       # miss rate for demand accesses
system.cpu.dcache.demand_miss_rate::total     0.122178                       # miss rate for demand accesses
system.cpu.dcache.overall_miss_rate::.cpu.data     0.122179                       # miss rate for overall accesses
system.cpu.dcache.overall_miss_rate::total     0.122179                       # miss rate for overall accesses
system.cpu.dcache.demand_avg_miss_latency::.cpu.data 96258.938534                       # average overall miss latency
system.cpu.dcache.demand_avg_miss_latency::total 96258.938534                       # average overall miss latency
system.cpu.dcache.overall_avg_miss_latency::.cpu.data 96258.567261                       # average overall miss latency
system.cpu.dcache.overall_avg_miss_latency::total 96258.567261                       # average overall miss latency
system.cpu.dcache.blocked_cycles::no_mshrs            0                       # number of cycles access was blocked
system.cpu.dcache.blocked_cycles::no_targets            0                       # number of cycles access was blocked
system.cpu.dcache.blocked::no_mshrs                 0                       # number of cycles access was blocked
system.cpu.dcache.blocked::no_targets               0                       # number of cycles access was blocked
system.cpu.dcache.avg_blocked_cycles::no_mshrs          nan                       # average number of cycles each access was blocked
system.cpu.dcache.avg_blocked_cycles::no_targets          nan                       # average number of cycles each access was blocked
system.cpu.dcache.writebacks::.writebacks      2979475                       # number of writebacks
system.cpu.dcache.writebacks::total           2979475                       # number of writebacks
system.cpu.dcache.demand_mshr_hits::.cpu.data      2978553                       # number of demand (read+write) MSHR hits
system.cpu.dcache.demand_mshr_hits::total      2978553                       # number of demand (read+write) MSHR hits
system.cpu.dcache.overall_mshr_hits::.cpu.data      2978553                       # number of overall MSHR hits
system.cpu.dcache.overall_mshr_hits::total      2978553                       # number of overall MSHR hits
system.cpu.dcache.demand_mshr_misses::.cpu.data      2984561                       # number of demand (read+write) MSHR misses
system.cpu.dcache.demand_mshr_misses::total      2984561                       # number of demand (read+write) MSHR misses
system.cpu.dcache.overall_mshr_misses::.cpu.data      2984584                       # number of overall MSHR misses
system.cpu.dcache.overall_mshr_misses::total      2984584                       # number of overall MSHR misses
system.cpu.dcache.demand_mshr_miss_latency::.cpu.data 298450966000                       # number of demand (read+write) MSHR miss cycles
system.cpu.dcache.demand_mshr_miss_latency::total 298450966000                       # number of demand (read+write) MSHR miss cycles
system.cpu.dcache.overall_mshr_miss_latency::.cpu.data 298453258000                       # number of overall MSHR miss cycles
system.cpu.dcache.overall_mshr_miss_latency::total 298453258000                       # number of overall MSHR miss cycles
system.cpu.dcache.demand_mshr_miss_rate::.cpu.data     0.061151                       # mshr miss rate for demand accesses
system.cpu.dcache.demand_mshr_miss_rate::total     0.061151                       # mshr miss rate for demand accesses
system.cpu.dcache.overall_mshr_miss_rate::.cpu.data     0.061151                       # mshr miss rate for overall accesses
system.cpu.dcache.overall_mshr_miss_rate::total     0.061151                       # mshr miss rate for overall accesses
system.cpu.dcache.demand_avg_mshr_miss_latency::.cpu.data 99998.279814                       # average overall mshr miss latency
system.cpu.dcache.demand_avg_mshr_miss_latency::total 99998.279814                       # average overall mshr miss latency
system.cpu.dcache.overall_avg_mshr_miss_latency::.cpu.data 99998.277147                       # average overall mshr miss latency
system.cpu.dcache.overall_avg_mshr_miss_latency::total 99998.277147                       # average overall mshr miss latency
system.cpu.dcache.replacements                2982536                       # number of replacements
system.cpu.dcache.ReadReq_hits::.cpu.data     35705058                       # number of ReadReq hits
system.cpu.dcache.ReadReq_hits::total        35705058                       # number of ReadReq hits
system.cpu.dcache.ReadReq_misses::.cpu.data         5979                       # number of ReadReq misses
system.cpu.dcache.ReadReq_misses::total          5979                       # number of ReadReq misses
system.cpu.dcache.ReadReq_miss_latency::.cpu.data    280921000                       # number of ReadReq miss cycles
system.cpu.dcache.ReadReq_miss_latency::total    280921000                       # number of ReadReq miss cycles
system.cpu.dcache.ReadReq_accesses::.cpu.data     35711037                       # number of ReadReq accesses(hits+misses)
system.cpu.dcache.ReadReq_accesses::total     35711037                       # number of ReadReq accesses(hits+misses)
system.cpu.dcache.ReadReq_miss_rate::.cpu.data     0.000167                       # miss rate for ReadReq accesses
system.cpu.dcache.ReadReq_miss_rate::total     0.000167                       # miss rate for ReadReq accesses
system.cpu.dcache.ReadReq_avg_miss_latency::.cpu.data 46984.612812                       # average ReadReq miss latency
system.cpu.dcache.ReadReq_avg_miss_latency::total 46984.612812                       # average ReadReq miss latency
system.cpu.dcache.ReadReq_mshr_hits::.cpu.data            7                       # number of ReadReq MSHR hits
system.cpu.dcache.ReadReq_mshr_hits::total            7                       # number of ReadReq MSHR hits
system.cpu.dcache.ReadReq_mshr_misses::.cpu.data         5972                       # number of ReadReq MSHR misses
system.cpu.dcache.ReadReq_mshr_misses::total         5972                       # number of ReadReq MSHR misses
system.cpu.dcache.ReadReq_mshr_miss_latency::.cpu.data    268331000                       # number of ReadReq MSHR miss cycles
system.cpu.dcache.ReadReq_mshr_miss_latency::total    268331000                       # number of ReadReq MSHR miss cycles
system.cpu.dcache.ReadReq_mshr_miss_rate::.cpu.data     0.000167                       # mshr miss rate for ReadReq accesses
system.cpu.dcache.ReadReq_mshr_miss_rate::total     0.000167                       # mshr miss rate for ReadReq accesses
system.cpu.dcache.ReadReq_avg_mshr_miss_latency::.cpu.data 44931.513731                       # average ReadReq mshr miss latency
system.cpu.dcache.ReadReq_avg_mshr_miss_latency::total 44931.513731                       # average ReadReq mshr miss latency
system.cpu.dcache.WriteReq_hits::.cpu.data      7138479                       # number of WriteReq hits
system.cpu.dcache.WriteReq_hits::total        7138479                       # number of WriteReq hits
system.cpu.dcache.WriteReq_misses::.cpu.data      5957135                       # number of WriteReq misses
system.cpu.dcache.WriteReq_misses::total      5957135                       # number of WriteReq misses
system.cpu.dcache.WriteReq_miss_latency::.cpu.data 573722103000                       # number of WriteReq miss cycles
system.cpu.dcache.WriteReq_miss_latency::total 573722103000                       # number of WriteReq miss cycles
system.cpu.dcache.WriteReq_accesses::.cpu.data     13095614                       # number of WriteReq accesses(hits+misses)
system.cpu.dcache.WriteReq_accesses::total     13095614                       # number of WriteReq accesses(hits+misses)
system.cpu.dcache.WriteReq_miss_rate::.cpu.data     0.454895                       # miss rate for WriteReq accesses
system.cpu.dcache.WriteReq_miss_rate::total     0.454895                       # miss rate for WriteReq accesses
system.cpu.dcache.WriteReq_avg_miss_latency::.cpu.data 96308.393716                       # average WriteReq miss latency
system.cpu.dcache.WriteReq_avg_miss_latency::total 96308.393716                       # average WriteReq miss latency
system.cpu.dcache.WriteReq_mshr_hits::.cpu.data      2978546                       # number of WriteReq MSHR hits
system.cpu.dcache.WriteReq_mshr_hits::total      2978546                       # number of WriteReq MSHR hits
system.cpu.dcache.WriteReq_mshr_misses::.cpu.data      2978589                       # number of WriteReq MSHR misses
system.cpu.dcache.WriteReq_mshr_misses::total      2978589                       # number of WriteReq MSHR misses
system.cpu.dcache.WriteReq_mshr_miss_latency::.cpu.data 298182635000                       # number of WriteReq MSHR miss cycles
system.cpu.dcache.WriteReq_mshr_miss_latency::total 298182635000                       # number of WriteReq MSHR miss cycles
system.cpu.dcache.WriteReq_mshr_miss_rate::.cpu.data     0.227449                       # mshr miss rate for WriteReq accesses
system.cpu.dcache.WriteReq_mshr_miss_rate::total     0.227449                       # mshr miss rate for WriteReq accesses
system.cpu.dcache.WriteReq_avg_mshr_miss_latency::.cpu.data 100108.687368                       # average WriteReq mshr miss latency
system.cpu.dcache.WriteReq_avg_mshr_miss_latency::total 100108.687368                       # average WriteReq mshr miss latency
system.cpu.dcache.SoftPFReq_hits::.cpu.data           29                       # number of SoftPFReq hits
system.cpu.dcache.SoftPFReq_hits::total            29                       # number of SoftPFReq hits
system.cpu.dcache.SoftPFReq_misses::.cpu.data           23                       # number of SoftPFReq misses
system.cpu.dcache.SoftPFReq_misses::total           23                       # number of SoftPFReq misses
system.cpu.dcache.SoftPFReq_accesses::.cpu.data           52                       # number of SoftPFReq accesses(hits+misses)
system.cpu.dcache.SoftPFReq_accesses::total           52                       # number of SoftPFReq accesses(hits+misses)
system.cpu.dcache.SoftPFReq_miss_rate::.cpu.data     0.442308                       # miss rate for SoftPFReq accesses
system.cpu.dcache.SoftPFReq_miss_rate::total     0.442308                       # miss rate for SoftPFReq accesses
system.cpu.dcache.SoftPFReq_mshr_misses::.cpu.data           23                       # number of SoftPFReq MSHR misses
system.cpu.dcache.SoftPFReq_mshr_misses::total           23                       # number of SoftPFReq MSHR misses
system.cpu.dcache.SoftPFReq_mshr_miss_latency::.cpu.data      2292000                       # number of SoftPFReq MSHR miss cycles
system.cpu.dcache.SoftPFReq_mshr_miss_latency::total      2292000                       # number of SoftPFReq MSHR miss cycles
system.cpu.dcache.SoftPFReq_mshr_miss_rate::.cpu.data     0.442308                       # mshr miss rate for SoftPFReq accesses
system.cpu.dcache.SoftPFReq_mshr_miss_rate::total     0.442308                       # mshr miss rate for SoftPFReq accesses
system.cpu.dcache.SoftPFReq_avg_mshr_miss_latency::.cpu.data 99652.173913                       # average SoftPFReq mshr miss latency
system.cpu.dcache.SoftPFReq_avg_mshr_miss_latency::total 99652.173913                       # average SoftPFReq mshr miss latency
system.cpu.dcache.LoadLockedReq_hits::.cpu.data           13                       # number of LoadLockedReq hits
system.cpu.dcache.LoadLockedReq_hits::total           13                       # number of LoadLockedReq hits
system.cpu.dcache.LoadLockedReq_misses::.cpu.data            1                       # number of LoadLockedReq misses
system.cpu.dcache.LoadLockedReq_misses::total            1                       # number of LoadLockedReq misses
system.cpu.dcache.LoadLockedReq_miss_latency::.cpu.data        95000                       # number of LoadLockedReq miss cycles
system.cpu.dcache.LoadLockedReq_miss_latency::total        95000                       # number of LoadLockedReq miss cycles
system.cpu.dcache.LoadLockedReq_accesses::.cpu.data           14                       # number of LoadLockedReq accesses(hits+misses)
system.cpu.dcache.LoadLockedReq_accesses::total           14                       # number of LoadLockedReq accesses(hits+misses)
system.cpu.dcache.LoadLockedReq_miss_rate::.cpu.data     0.071429                       # miss rate for LoadLockedReq accesses
system.cpu.dcache.LoadLockedReq_miss_rate::total     0.071429                       # miss rate for LoadLockedReq accesses
system.cpu.dcache.LoadLockedReq_avg_miss_latency::.cpu.data        95000                       # average LoadLockedReq miss latency
system.cpu.dcache.LoadLockedReq_avg_miss_latency::total        95000                       # average LoadLockedReq miss latency
system.cpu.dcache.LoadLockedReq_mshr_misses::.cpu.data            1                       # number of LoadLockedReq MSHR misses
system.cpu.dcache.LoadLockedReq_mshr_misses::total            1                       # number of LoadLockedReq MSHR misses
system.cpu.dcache.LoadLockedReq_mshr_miss_latency::.cpu.data        93000                       # number of LoadLockedReq MSHR miss cycles
system.cpu.dcache.LoadLockedReq_mshr_miss_latency::total        93000                       # number of LoadLockedReq MSHR miss cycles
system.cpu.dcache.LoadLockedReq_mshr_miss_rate::.cpu.data     0.071429                       # mshr miss rate for LoadLockedReq accesses
system.cpu.dcache.LoadLockedReq_mshr_miss_rate::total     0.071429                       # mshr miss rate for LoadLockedReq accesses
system.cpu.dcache.LoadLockedReq_avg_mshr_miss_latency::.cpu.data        93000                       # average LoadLockedReq mshr miss latency
system.cpu.dcache.LoadLockedReq_avg_mshr_miss_latency::total        93000                       # average LoadLockedReq mshr miss latency
system.cpu.dcache.StoreCondReq_hits::.cpu.data           14                       # number of StoreCondReq hits
system.cpu.dcache.StoreCondReq_hits::total           14                       # number of StoreCondReq hits
system.cpu.dcache.StoreCondReq_accesses::.cpu.data           14                       # number of StoreCondReq accesses(hits+misses)
system.cpu.dcache.StoreCondReq_accesses::total           14                       # number of StoreCondReq accesses(hits+misses)
system.cpu.dcache.tags.pwrStateResidencyTicks::UNDEFINED 392538904000                       # Cumulative time (in ticks) in various power states
system.cpu.dcache.tags.tagsinuse          2046.861417                       # Cycle average of tags in use
system.cpu.dcache.tags.total_refs            45828177                       # Total number of references to valid blocks.
system.cpu.dcache.tags.sampled_refs           2984584                       # Sample count of references to valid blocks.
system.cpu.dcache.tags.avg_refs             15.354963                       # Average number of references to valid blocks.
system.cpu.dcache.tags.warmup_cycle            223000                       # Cycle when the warmup percentage was hit.
system.cpu.dcache.tags.occ_blocks::.cpu.data  2046.861417                       # Average occupied blocks per requestor
system.cpu.dcache.tags.occ_percent::.cpu.data     0.999444                       # Average percentage of cache occupancy
system.cpu.dcache.tags.occ_percent::total     0.999444                       # Average percentage of cache occupancy
system.cpu.dcache.tags.occ_task_id_blocks::1024         2048                       # Occupied blocks per task id
system.cpu.dcache.tags.age_task_id_blocks_1024::0           77                       # Occupied blocks per task id
system.cpu.dcache.tags.age_task_id_blocks_1024::1          680                       # Occupied blocks per task id
system.cpu.dcache.tags.age_task_id_blocks_1024::2         1291                       # Occupied blocks per task id
system.cpu.dcache.tags.occ_task_id_percent::1024            1                       # Percentage of cache occupancy per task id
system.cpu.dcache.tags.tag_accesses          51791315                       # Number of tag accesses
system.cpu.dcache.tags.data_accesses         51791315                       # Number of data accesses
system.cpu.itb.walker.pwrStateResidencyTicks::UNDEFINED 392538904000                       # Cumulative time (in ticks) in various power states
system.cpu.itb.stage2_mmu.stage2_tlb.walker.pwrStateResidencyTicks::UNDEFINED 392538904000                       # Cumulative time (in ticks) in various power states

---------- End Simulation Statistics   ----------
